*Heading
** Job name: femur_2D_TRI6 Model name: femur_2D_TRI6
** Generated by: Abaqus/CAE 2019
*Preprint, echo=NO, model=NO, history=NO, contact=NO
**
** PARTS
**
*Part, name=FEMUR
*Node
      1,    15.847846,    203.61882
      2,   19.9416027,   201.126999
      3,   23.6274223,   198.098724
      4,   26.5365582,   194.380173
      5,   28.7058411,   190.106735
      6,   30.1037083,    185.55545
      7,   31.1575851,   180.880264
      8,   32.2114601,   176.205078
      9,   33.1393471,   171.515869
     10,   33.1393471,   166.723373
     11,    30.181179,   163.291855
     12,   27.2230129,   159.860336
     13,   24.2648468,   156.428818
     14,   23.8558979,   151.415039
     15,   23.4469509,    146.40126
     16,    23.038002,   141.387497
     17,    22.629055,   136.373718
     18,   22.2201061,    131.35994
     19,   21.9664059,   126.339272
     20,   21.9294147,   121.308983
** ... 2860 like lines cut
*Element, type=CPE6
   1,  198,  202,  199,  774,  773,  772
   2,  202,  200,  199,  776,  775,  773
   3,  202,  201,  200,  778,  777,  776
   4,   96,  203,   97,  781,  780,  779
   5,  203,   98,   97,  783,  782,  780
   6,  203,  204,   98,  785,  784,  783
   7,  204,   99,   98,  787,  786,  784
   8,  204,  205,   99,  789,  788,  787
   9,  205,  100,   99,  791,  790,  788
  10,  205,  206,  100,  793,  792,  791
  11,  206,  101,  100,  795,  794,  792
  12,  206,  207,  101,  797,  796,  795
  13,  207,  102,  101,  799,  798,  796
  14,  207,  208,  102,  801,  800,  799
  15,  208,  103,  102,  803,  802,  800
  16,   95,  209,   96,  806,  805,  804
  17,  209,  203,   96,  807,  781,  805
  18,   94,  210,   95,  810,  809,  808
  19,  210,  209,   95,  811,  806,  809
  20,   93,  210,   94,  813,  810,  812
** ... 1319 like lines cut
*Elset, elset=TRIS, generate
    1,  1339,     1
*Nset, nset=FIXED, generate
  68,  112,    1
*Nset, nset=LOAD
 184,
** Section: Section-1-TRIS
*Solid Section, elset=TRIS, controls=EC-1, material=BONE
1.,
*End Part
**  
**
** ASSEMBLY
**
*Assembly, name=Assembly
**  
*Instance, name=FEMUR-1, part=FEMUR
*End Instance
**  
*End Assembly
** 
** ELEMENT CONTROLS
** 
*Section Controls, name=EC-1, DISTORTION CONTROL=NO, ELEMENT DELETION=NO, hourglass=STIFFNESS
1., 1., 1.
** 
** MATERIALS
** 
*Material, name=BONE
*Elastic
20000., 0.35
** ----------------------------------------------------------------
** 
** STEP: pure_moment
** 
*Step, name=pure_moment, nlgeom=NO
*Static
1., 1., 1e-05, 1.
** 
** BOUNDARY CONDITIONS
** 
** Name: Disp-BC-1 Type: Displacement/Rotation
*Boundary
FEMUR-1.FIXED, 1, 1
FEMUR-1.FIXED, 2, 2
** 
** LOADS
** 
** Name: CFORCE-1   Type: Concentrated force
*Cload, op=NEW
FEMUR-1.LOAD, 1, -20.
** Name: CFORCE-2   Type: Concentrated force
*Cload, op=NEW
FEMUR-1.LOAD, 2, -50.
** 
** OUTPUT REQUESTS
** 
*Restart, write, frequency=0
** 
** FIELD OUTPUT: F-Output-1
** 
*Output, field, variable=PRESELECT
*Output, history, frequency=0
*End Step
